
  MOE2016           3D

 21 21  0  0  0  0  0  0  0  0999 V2000
    1.1630    0.7630    0.1810 N   0  0  0  0  0  0  0  0  0  0  0  0
   -0.1180    1.4320    0.5840 C   0  0  0  0  0  0  0  0  0  0  0  0
   -0.0360    2.5390    0.5170 H   0  0  0  0  0  0  0  0  0  0  0  0
   -0.4020    1.1740    1.6270 H   0  0  0  0  0  0  0  0  0  0  0  0
   -1.2040    0.9290   -0.3000 N   0  0  0  0  0  0  0  0  0  0  0  0
   -1.3320   -0.5520   -0.2630 C   0  0  0  0  0  0  0  0  0  0  0  0
   -2.1410   -0.8980   -0.9420 H   0  0  0  0  0  0  0  0  0  0  0  0
   -1.6180   -0.8290    0.7740 H   0  0  0  0  0  0  0  0  0  0  0  0
   -0.0060   -1.1440   -0.6420 N   0  0  0  0  0  0  0  0  0  0  0  0
    1.1020   -0.7290    0.2740 C   0  0  0  0  0  0  0  0  0  0  0  0
    2.0660   -1.1820   -0.0450 H   0  0  0  0  0  0  0  0  0  0  0  0
    0.8880   -1.0500    1.3190 H   0  0  0  0  0  0  0  0  0  0  0  0
    2.4730    1.4550    0.4390 N   0  3  0  0  0  0  0  0  0  0  0  0
    3.4620    0.7920    0.2750 O   0  0  0  0  0  0  0  0  0  0  0  0
    2.4070    2.6060    0.7800 O   0  5  0  0  0  0  0  0  0  0  0  0
    0.0480   -2.5000   -1.2880 N   0  3  0  0  0  0  0  0  0  0  0  0
   -1.0030   -2.9560   -1.6530 O   0  0  0  0  0  0  0  0  0  0  0  0
    1.1380   -2.9980   -1.3820 O   0  5  0  0  0  0  0  0  0  0  0  0
   -1.3890    1.6240   -1.6650 N   0  3  0  0  0  0  0  0  0  0  0  0
   -0.9500    2.7380   -1.7560 O   0  0  0  0  0  0  0  0  0  0  0  0
   -2.0080    1.0110   -2.4910 O   0  5  0  0  0  0  0  0  0  0  0  0
  1  2  1  0  0  0  0
  1 10  1  0  0  0  0
  1 13  1  0  0  0  0
  2  3  1  0  0  0  0
  2  4  1  0  0  0  0
  2  5  1  0  0  0  0
  5  6  1  0  0  0  0
  5 19  1  0  0  0  0
  6  7  1  0  0  0  0
  6  8  1  0  0  0  0
  6  9  1  0  0  0  0
  9 10  1  0  0  0  0
  9 16  1  0  0  0  0
 10 11  1  0  0  0  0
 10 12  1  0  0  0  0
 13 14  2  0  0  0  0
 13 15  1  0  0  0  0
 16 17  2  0  0  0  0
 16 18  1  0  0  0  0
 19 20  2  0  0  0  0
 19 21  1  0  0  0  0
M  CHG  1  13   1
M  CHG  1  15  -1
M  CHG  1  16   1
M  CHG  1  18  -1
M  CHG  1  19   1
M  CHG  1  21  -1
M  END
>  <energy>
-73164.688

>  <Hf>
42.3134

>  <cpu>
0.28


$$$$

  MOE2016           3D

 28 28  0  0  0  0  0  0  0  0999 V2000
    1.8780    0.7780   -2.5140 C   0  0  0  0  0  0  0  0  0  0  0  0
    2.9110    1.1420   -2.3290 H   0  0  0  0  0  0  0  0  0  0  0  0
    1.7650    0.6310   -3.6110 H   0  0  0  0  0  0  0  0  0  0  0  0
    0.8350    1.6980   -1.9790 N   0  0  0  0  0  0  0  0  0  0  0  0
   -0.5060    1.6040   -2.6250 C   0  0  0  0  0  0  0  0  0  0  0  0
   -0.4160    1.3050   -3.6920 H   0  0  0  0  0  0  0  0  0  0  0  0
   -1.0470    2.5750   -2.5950 H   0  0  0  0  0  0  0  0  0  0  0  0
   -1.3740    0.5970   -1.9500 N   0  0  0  0  0  0  0  0  0  0  0  0
   -1.4160   -0.7700   -2.5350 C   0  0  0  0  0  0  0  0  0  0  0  0
   -1.2690   -0.6620   -3.6320 H   0  0  0  0  0  0  0  0  0  0  0  0
   -2.4420   -1.1650   -2.3740 H   0  0  0  0  0  0  0  0  0  0  0  0
   -0.3830   -1.6760   -1.9500 N   0  0  0  0  0  0  0  0  0  0  0  0
    0.9690   -1.6000   -2.5740 C   0  0  0  0  0  0  0  0  0  0  0  0
    0.8980   -1.3220   -3.6480 H   0  0  0  0  0  0  0  0  0  0  0  0
    1.5070   -2.5710   -2.5150 H   0  0  0  0  0  0  0  0  0  0  0  0
    1.8210   -0.5790   -1.9040 N   0  0  0  0  0  0  0  0  0  0  0  0
   -0.8710   -3.0830   -1.4520 N   0  3  0  0  0  0  0  0  0  0  0  0
   -0.0250   -3.9230   -1.3500 O   0  0  0  0  0  0  0  0  0  0  0  0
   -2.0470   -3.1870   -1.2560 O   0  5  0  0  0  0  0  0  0  0  0  0
   -1.7640    0.8070   -0.5070 N   0  3  0  0  0  0  0  0  0  0  0  0
   -2.1480   -0.1620    0.0920 O   0  0  0  0  0  0  0  0  0  0  0  0
   -1.6880    1.9360   -0.1010 O   0  5  0  0  0  0  0  0  0  0  0  0
    1.3140    3.1110   -1.5000 N   0  3  0  0  0  0  0  0  0  0  0  0
    2.4640    3.1880   -1.1810 O   0  0  0  0  0  0  0  0  0  0  0  0
    0.4930    3.9820   -1.5380 O   0  5  0  0  0  0  0  0  0  0  0  0
    2.1930   -0.7710   -0.4490 N   0  3  0  0  0  0  0  0  0  0  0  0
    2.1970   -1.9070   -0.0570 O   0  0  0  0  0  0  0  0  0  0  0  0
    2.4890    0.2170    0.1670 O   0  5  0  0  0  0  0  0  0  0  0  0
  1  2  1  0  0  0  0
  1  3  1  0  0  0  0
  1  4  1  0  0  0  0
  1 16  1  0  0  0  0
  4  5  1  0  0  0  0
  4 23  1  0  0  0  0
  5  6  1  0  0  0  0
  5  7  1  0  0  0  0
  5  8  1  0  0  0  0
  8  9  1  0  0  0  0
  8 20  1  0  0  0  0
  9 10  1  0  0  0  0
  9 11  1  0  0  0  0
  9 12  1  0  0  0  0
 12 13  1  0  0  0  0
 12 17  1  0  0  0  0
 13 14  1  0  0  0  0
 13 15  1  0  0  0  0
 13 16  1  0  0  0  0
 16 26  1  0  0  0  0
 17 18  2  0  0  0  0
 17 19  1  0  0  0  0
 20 21  2  0  0  0  0
 20 22  1  0  0  0  0
 23 24  2  0  0  0  0
 23 25  1  0  0  0  0
 26 27  2  0  0  0  0
 26 28  1  0  0  0  0
M  CHG  1  17   1
M  CHG  1  19  -1
M  CHG  1  20   1
M  CHG  1  22  -1
M  CHG  1  23   1
M  CHG  1  25  -1
M  CHG  1  26   1
M  CHG  1  28  -1
M  END
>  <energy>
-97546.273

>  <Hf>
63.058578

>  <cpu>
3.8699999


$$$$

  MOE2016           3D

 21 21  0  0  0  0  0  0  0  0999 V2000
    1.1630    0.7630    0.1810 N   0  0  0  0  0  0  0  0  0  0  0  0
   -0.1180    1.4320    0.5840 C   0  0  0  0  0  0  0  0  0  0  0  0
   -0.0360    2.5390    0.5170 H   0  0  0  0  0  0  0  0  0  0  0  0
   -0.4020    1.1740    1.6270 H   0  0  0  0  0  0  0  0  0  0  0  0
   -1.2040    0.9290   -0.3000 N   0  0  0  0  0  0  0  0  0  0  0  0
   -1.3320   -0.5520   -0.2630 C   0  0  0  0  0  0  0  0  0  0  0  0
   -2.1410   -0.8980   -0.9420 H   0  0  0  0  0  0  0  0  0  0  0  0
   -1.6180   -0.8290    0.7740 H   0  0  0  0  0  0  0  0  0  0  0  0
   -0.0060   -1.1440   -0.6420 N   0  0  0  0  0  0  0  0  0  0  0  0
    1.1020   -0.7290    0.2740 C   0  0  0  0  0  0  0  0  0  0  0  0
    2.0660   -1.1820   -0.0450 H   0  0  0  0  0  0  0  0  0  0  0  0
    0.8880   -1.0500    1.3190 H   0  0  0  0  0  0  0  0  0  0  0  0
    2.4730    1.4550    0.4390 N   0  3  0  0  0  0  0  0  0  0  0  0
    3.4620    0.7920    0.2750 O   0  0  0  0  0  0  0  0  0  0  0  0
    2.4070    2.6060    0.7800 O   0  5  0  0  0  0  0  0  0  0  0  0
    0.0480   -2.5000   -1.2880 N   0  3  0  0  0  0  0  0  0  0  0  0
   -1.0030   -2.9560   -1.6530 O   0  0  0  0  0  0  0  0  0  0  0  0
    1.1380   -2.9980   -1.3820 O   0  5  0  0  0  0  0  0  0  0  0  0
   -1.3890    1.6240   -1.6650 N   0  3  0  0  0  0  0  0  0  0  0  0
   -0.9500    2.7380   -1.7560 O   0  0  0  0  0  0  0  0  0  0  0  0
   -2.0080    1.0110   -2.4910 O   0  5  0  0  0  0  0  0  0  0  0  0
  1  2  1  0  0  0  0
  1 10  1  0  0  0  0
  1 13  1  0  0  0  0
  2  3  1  0  0  0  0
  2  4  1  0  0  0  0
  2  5  1  0  0  0  0
  5  6  1  0  0  0  0
  5 19  1  0  0  0  0
  6  7  1  0  0  0  0
  6  8  1  0  0  0  0
  6  9  1  0  0  0  0
  9 10  1  0  0  0  0
  9 16  1  0  0  0  0
 10 11  1  0  0  0  0
 10 12  1  0  0  0  0
 13 14  2  0  0  0  0
 13 15  1  0  0  0  0
 16 17  2  0  0  0  0
 16 18  1  0  0  0  0
 19 20  2  0  0  0  0
 19 21  1  0  0  0  0
M  CHG  1  13   1
M  CHG  1  15  -1
M  CHG  1  16   1
M  CHG  1  18  -1
M  CHG  1  19   1
M  CHG  1  21  -1
M  END
>  <energy>
-73164.688

>  <Hf>
42.3134

>  <cpu>
0.28


$$$$

  MOE2016           3D

 28 28  0  0  0  0  0  0  0  0999 V2000
    1.8780    0.7780   -2.5140 C   0  0  0  0  0  0  0  0  0  0  0  0
    2.9110    1.1420   -2.3290 H   0  0  0  0  0  0  0  0  0  0  0  0
    1.7650    0.6310   -3.6110 H   0  0  0  0  0  0  0  0  0  0  0  0
    0.8350    1.6980   -1.9790 N   0  0  0  0  0  0  0  0  0  0  0  0
   -0.5060    1.6040   -2.6250 C   0  0  0  0  0  0  0  0  0  0  0  0
   -0.4160    1.3050   -3.6920 H   0  0  0  0  0  0  0  0  0  0  0  0
   -1.0470    2.5750   -2.5950 H   0  0  0  0  0  0  0  0  0  0  0  0
   -1.3740    0.5970   -1.9500 N   0  0  0  0  0  0  0  0  0  0  0  0
   -1.4160   -0.7700   -2.5350 C   0  0  0  0  0  0  0  0  0  0  0  0
   -1.2690   -0.6620   -3.6320 H   0  0  0  0  0  0  0  0  0  0  0  0
   -2.4420   -1.1650   -2.3740 H   0  0  0  0  0  0  0  0  0  0  0  0
   -0.3830   -1.6760   -1.9500 N   0  0  0  0  0  0  0  0  0  0  0  0
    0.9690   -1.6000   -2.5740 C   0  0  0  0  0  0  0  0  0  0  0  0
    0.8980   -1.3220   -3.6480 H   0  0  0  0  0  0  0  0  0  0  0  0
    1.5070   -2.5710   -2.5150 H   0  0  0  0  0  0  0  0  0  0  0  0
    1.8210   -0.5790   -1.9040 N   0  0  0  0  0  0  0  0  0  0  0  0
   -0.8710   -3.0830   -1.4520 N   0  3  0  0  0  0  0  0  0  0  0  0
   -0.0250   -3.9230   -1.3500 O   0  0  0  0  0  0  0  0  0  0  0  0
   -2.0470   -3.1870   -1.2560 O   0  5  0  0  0  0  0  0  0  0  0  0
   -1.7640    0.8070   -0.5070 N   0  3  0  0  0  0  0  0  0  0  0  0
   -2.1480   -0.1620    0.0920 O   0  0  0  0  0  0  0  0  0  0  0  0
   -1.6880    1.9360   -0.1010 O   0  5  0  0  0  0  0  0  0  0  0  0
    1.3140    3.1110   -1.5000 N   0  3  0  0  0  0  0  0  0  0  0  0
    2.4640    3.1880   -1.1810 O   0  0  0  0  0  0  0  0  0  0  0  0
    0.4930    3.9820   -1.5380 O   0  5  0  0  0  0  0  0  0  0  0  0
    2.1930   -0.7710   -0.4490 N   0  3  0  0  0  0  0  0  0  0  0  0
    2.1970   -1.9070   -0.0570 O   0  0  0  0  0  0  0  0  0  0  0  0
    2.4890    0.2170    0.1670 O   0  5  0  0  0  0  0  0  0  0  0  0
  1  2  1  0  0  0  0
  1  3  1  0  0  0  0
  1  4  1  0  0  0  0
  1 16  1  0  0  0  0
  4  5  1  0  0  0  0
  4 23  1  0  0  0  0
  5  6  1  0  0  0  0
  5  7  1  0  0  0  0
  5  8  1  0  0  0  0
  8  9  1  0  0  0  0
  8 20  1  0  0  0  0
  9 10  1  0  0  0  0
  9 11  1  0  0  0  0
  9 12  1  0  0  0  0
 12 13  1  0  0  0  0
 12 17  1  0  0  0  0
 13 14  1  0  0  0  0
 13 15  1  0  0  0  0
 13 16  1  0  0  0  0
 16 26  1  0  0  0  0
 17 18  2  0  0  0  0
 17 19  1  0  0  0  0
 20 21  2  0  0  0  0
 20 22  1  0  0  0  0
 23 24  2  0  0  0  0
 23 25  1  0  0  0  0
 26 27  2  0  0  0  0
 26 28  1  0  0  0  0
M  CHG  1  17   1
M  CHG  1  19  -1
M  CHG  1  20   1
M  CHG  1  22  -1
M  CHG  1  23   1
M  CHG  1  25  -1
M  CHG  1  26   1
M  CHG  1  28  -1
M  END
>  <energy>
-97546.273

>  <Hf>
63.058578

>  <cpu>
3.8699999


$$$$

  MOE2016           3D

 21 21  0  0  0  0  0  0  0  0999 V2000
    1.1630    0.7630    0.1810 N   0  0  0  0  0  0  0  0  0  0  0  0
   -0.1180    1.4320    0.5840 C   0  0  0  0  0  0  0  0  0  0  0  0
   -0.0360    2.5390    0.5170 H   0  0  0  0  0  0  0  0  0  0  0  0
   -0.4020    1.1740    1.6270 H   0  0  0  0  0  0  0  0  0  0  0  0
   -1.2040    0.9290   -0.3000 N   0  0  0  0  0  0  0  0  0  0  0  0
   -1.3320   -0.5520   -0.2630 C   0  0  0  0  0  0  0  0  0  0  0  0
   -2.1410   -0.8980   -0.9420 H   0  0  0  0  0  0  0  0  0  0  0  0
   -1.6180   -0.8290    0.7740 H   0  0  0  0  0  0  0  0  0  0  0  0
   -0.0060   -1.1440   -0.6420 N   0  0  0  0  0  0  0  0  0  0  0  0
    1.1020   -0.7290    0.2740 C   0  0  0  0  0  0  0  0  0  0  0  0
    2.0660   -1.1820   -0.0450 H   0  0  0  0  0  0  0  0  0  0  0  0
    0.8880   -1.0500    1.3190 H   0  0  0  0  0  0  0  0  0  0  0  0
    2.4730    1.4550    0.4390 N   0  3  0  0  0  0  0  0  0  0  0  0
    3.4620    0.7920    0.2750 O   0  0  0  0  0  0  0  0  0  0  0  0
    2.4070    2.6060    0.7800 O   0  5  0  0  0  0  0  0  0  0  0  0
    0.0480   -2.5000   -1.2880 N   0  3  0  0  0  0  0  0  0  0  0  0
   -1.0030   -2.9560   -1.6530 O   0  0  0  0  0  0  0  0  0  0  0  0
    1.1380   -2.9980   -1.3820 O   0  5  0  0  0  0  0  0  0  0  0  0
   -1.3890    1.6240   -1.6650 N   0  3  0  0  0  0  0  0  0  0  0  0
   -0.9500    2.7380   -1.7560 O   0  0  0  0  0  0  0  0  0  0  0  0
   -2.0080    1.0110   -2.4910 O   0  5  0  0  0  0  0  0  0  0  0  0
  1  2  1  0  0  0  0
  1 10  1  0  0  0  0
  1 13  1  0  0  0  0
  2  3  1  0  0  0  0
  2  4  1  0  0  0  0
  2  5  1  0  0  0  0
  5  6  1  0  0  0  0
  5 19  1  0  0  0  0
  6  7  1  0  0  0  0
  6  8  1  0  0  0  0
  6  9  1  0  0  0  0
  9 10  1  0  0  0  0
  9 16  1  0  0  0  0
 10 11  1  0  0  0  0
 10 12  1  0  0  0  0
 13 14  2  0  0  0  0
 13 15  1  0  0  0  0
 16 17  2  0  0  0  0
 16 18  1  0  0  0  0
 19 20  2  0  0  0  0
 19 21  1  0  0  0  0
M  CHG  1  13   1
M  CHG  1  15  -1
M  CHG  1  16   1
M  CHG  1  18  -1
M  CHG  1  19   1
M  CHG  1  21  -1
M  END
>  <energy>
-73164.688

>  <Hf>
42.3134

>  <cpu>
0.28


$$$$

  MOE2016           3D

 28 28  0  0  0  0  0  0  0  0999 V2000
    1.8780    0.7780   -2.5140 C   0  0  0  0  0  0  0  0  0  0  0  0
    2.9110    1.1420   -2.3290 H   0  0  0  0  0  0  0  0  0  0  0  0
    1.7650    0.6310   -3.6110 H   0  0  0  0  0  0  0  0  0  0  0  0
    0.8350    1.6980   -1.9790 N   0  0  0  0  0  0  0  0  0  0  0  0
   -0.5060    1.6040   -2.6250 C   0  0  0  0  0  0  0  0  0  0  0  0
   -0.4160    1.3050   -3.6920 H   0  0  0  0  0  0  0  0  0  0  0  0
   -1.0470    2.5750   -2.5950 H   0  0  0  0  0  0  0  0  0  0  0  0
   -1.3740    0.5970   -1.9500 N   0  0  0  0  0  0  0  0  0  0  0  0
   -1.4160   -0.7700   -2.5350 C   0  0  0  0  0  0  0  0  0  0  0  0
   -1.2690   -0.6620   -3.6320 H   0  0  0  0  0  0  0  0  0  0  0  0
   -2.4420   -1.1650   -2.3740 H   0  0  0  0  0  0  0  0  0  0  0  0
   -0.3830   -1.6760   -1.9500 N   0  0  0  0  0  0  0  0  0  0  0  0
    0.9690   -1.6000   -2.5740 C   0  0  0  0  0  0  0  0  0  0  0  0
    0.8980   -1.3220   -3.6480 H   0  0  0  0  0  0  0  0  0  0  0  0
    1.5070   -2.5710   -2.5150 H   0  0  0  0  0  0  0  0  0  0  0  0
    1.8210   -0.5790   -1.9040 N   0  0  0  0  0  0  0  0  0  0  0  0
   -0.8710   -3.0830   -1.4520 N   0  3  0  0  0  0  0  0  0  0  0  0
   -0.0250   -3.9230   -1.3500 O   0  0  0  0  0  0  0  0  0  0  0  0
   -2.0470   -3.1870   -1.2560 O   0  5  0  0  0  0  0  0  0  0  0  0
   -1.7640    0.8070   -0.5070 N   0  3  0  0  0  0  0  0  0  0  0  0
   -2.1480   -0.1620    0.0920 O   0  0  0  0  0  0  0  0  0  0  0  0
   -1.6880    1.9360   -0.1010 O   0  5  0  0  0  0  0  0  0  0  0  0
    1.3140    3.1110   -1.5000 N   0  3  0  0  0  0  0  0  0  0  0  0
    2.4640    3.1880   -1.1810 O   0  0  0  0  0  0  0  0  0  0  0  0
    0.4930    3.9820   -1.5380 O   0  5  0  0  0  0  0  0  0  0  0  0
    2.1930   -0.7710   -0.4490 N   0  3  0  0  0  0  0  0  0  0  0  0
    2.1970   -1.9070   -0.0570 O   0  0  0  0  0  0  0  0  0  0  0  0
    2.4890    0.2170    0.1670 O   0  5  0  0  0  0  0  0  0  0  0  0
  1  2  1  0  0  0  0
  1  3  1  0  0  0  0
  1  4  1  0  0  0  0
  1 16  1  0  0  0  0
  4  5  1  0  0  0  0
  4 23  1  0  0  0  0
  5  6  1  0  0  0  0
  5  7  1  0  0  0  0
  5  8  1  0  0  0  0
  8  9  1  0  0  0  0
  8 20  1  0  0  0  0
  9 10  1  0  0  0  0
  9 11  1  0  0  0  0
  9 12  1  0  0  0  0
 12 13  1  0  0  0  0
 12 17  1  0  0  0  0
 13 14  1  0  0  0  0
 13 15  1  0  0  0  0
 13 16  1  0  0  0  0
 16 26  1  0  0  0  0
 17 18  2  0  0  0  0
 17 19  1  0  0  0  0
 20 21  2  0  0  0  0
 20 22  1  0  0  0  0
 23 24  2  0  0  0  0
 23 25  1  0  0  0  0
 26 27  2  0  0  0  0
 26 28  1  0  0  0  0
M  CHG  1  17   1
M  CHG  1  19  -1
M  CHG  1  20   1
M  CHG  1  22  -1
M  CHG  1  23   1
M  CHG  1  25  -1
M  CHG  1  26   1
M  CHG  1  28  -1
M  END
>  <energy>
-97546.273

>  <Hf>
63.058578

>  <cpu>
3.8699999


$$$$

  MOE2016           3D

 21 21  0  0  0  0  0  0  0  0999 V2000
    1.1630    0.7630    0.1810 N   0  0  0  0  0  0  0  0  0  0  0  0
   -0.1180    1.4320    0.5840 C   0  0  0  0  0  0  0  0  0  0  0  0
   -0.0360    2.5390    0.5170 H   0  0  0  0  0  0  0  0  0  0  0  0
   -0.4020    1.1740    1.6270 H   0  0  0  0  0  0  0  0  0  0  0  0
   -1.2040    0.9290   -0.3000 N   0  0  0  0  0  0  0  0  0  0  0  0
   -1.3320   -0.5520   -0.2630 C   0  0  0  0  0  0  0  0  0  0  0  0
   -2.1410   -0.8980   -0.9420 H   0  0  0  0  0  0  0  0  0  0  0  0
   -1.6180   -0.8290    0.7740 H   0  0  0  0  0  0  0  0  0  0  0  0
   -0.0060   -1.1440   -0.6420 N   0  0  0  0  0  0  0  0  0  0  0  0
    1.1020   -0.7290    0.2740 C   0  0  0  0  0  0  0  0  0  0  0  0
    2.0660   -1.1820   -0.0450 H   0  0  0  0  0  0  0  0  0  0  0  0
    0.8880   -1.0500    1.3190 H   0  0  0  0  0  0  0  0  0  0  0  0
    2.4730    1.4550    0.4390 N   0  3  0  0  0  0  0  0  0  0  0  0
    3.4620    0.7920    0.2750 O   0  0  0  0  0  0  0  0  0  0  0  0
    2.4070    2.6060    0.7800 O   0  5  0  0  0  0  0  0  0  0  0  0
    0.0480   -2.5000   -1.2880 N   0  3  0  0  0  0  0  0  0  0  0  0
   -1.0030   -2.9560   -1.6530 O   0  0  0  0  0  0  0  0  0  0  0  0
    1.1380   -2.9980   -1.3820 O   0  5  0  0  0  0  0  0  0  0  0  0
   -1.3890    1.6240   -1.6650 N   0  3  0  0  0  0  0  0  0  0  0  0
   -0.9500    2.7380   -1.7560 O   0  0  0  0  0  0  0  0  0  0  0  0
   -2.0080    1.0110   -2.4910 O   0  5  0  0  0  0  0  0  0  0  0  0
  1  2  1  0  0  0  0
  1 10  1  0  0  0  0
  1 13  1  0  0  0  0
  2  3  1  0  0  0  0
  2  4  1  0  0  0  0
  2  5  1  0  0  0  0
  5  6  1  0  0  0  0
  5 19  1  0  0  0  0
  6  7  1  0  0  0  0
  6  8  1  0  0  0  0
  6  9  1  0  0  0  0
  9 10  1  0  0  0  0
  9 16  1  0  0  0  0
 10 11  1  0  0  0  0
 10 12  1  0  0  0  0
 13 14  2  0  0  0  0
 13 15  1  0  0  0  0
 16 17  2  0  0  0  0
 16 18  1  0  0  0  0
 19 20  2  0  0  0  0
 19 21  1  0  0  0  0
M  CHG  1  13   1
M  CHG  1  15  -1
M  CHG  1  16   1
M  CHG  1  18  -1
M  CHG  1  19   1
M  CHG  1  21  -1
M  END
>  <energy>
-73164.688

>  <Hf>
42.3134

>  <cpu>
0.28


$$$$

  MOE2016           3D

 28 28  0  0  0  0  0  0  0  0999 V2000
    1.8780    0.7780   -2.5140 C   0  0  0  0  0  0  0  0  0  0  0  0
    2.9110    1.1420   -2.3290 H   0  0  0  0  0  0  0  0  0  0  0  0
    1.7650    0.6310   -3.6110 H   0  0  0  0  0  0  0  0  0  0  0  0
    0.8350    1.6980   -1.9790 N   0  0  0  0  0  0  0  0  0  0  0  0
   -0.5060    1.6040   -2.6250 C   0  0  0  0  0  0  0  0  0  0  0  0
   -0.4160    1.3050   -3.6920 H   0  0  0  0  0  0  0  0  0  0  0  0
   -1.0470    2.5750   -2.5950 H   0  0  0  0  0  0  0  0  0  0  0  0
   -1.3740    0.5970   -1.9500 N   0  0  0  0  0  0  0  0  0  0  0  0
   -1.4160   -0.7700   -2.5350 C   0  0  0  0  0  0  0  0  0  0  0  0
   -1.2690   -0.6620   -3.6320 H   0  0  0  0  0  0  0  0  0  0  0  0
   -2.4420   -1.1650   -2.3740 H   0  0  0  0  0  0  0  0  0  0  0  0
   -0.3830   -1.6760   -1.9500 N   0  0  0  0  0  0  0  0  0  0  0  0
    0.9690   -1.6000   -2.5740 C   0  0  0  0  0  0  0  0  0  0  0  0
    0.8980   -1.3220   -3.6480 H   0  0  0  0  0  0  0  0  0  0  0  0
    1.5070   -2.5710   -2.5150 H   0  0  0  0  0  0  0  0  0  0  0  0
    1.8210   -0.5790   -1.9040 N   0  0  0  0  0  0  0  0  0  0  0  0
   -0.8710   -3.0830   -1.4520 N   0  3  0  0  0  0  0  0  0  0  0  0
   -0.0250   -3.9230   -1.3500 O   0  0  0  0  0  0  0  0  0  0  0  0
   -2.0470   -3.1870   -1.2560 O   0  5  0  0  0  0  0  0  0  0  0  0
   -1.7640    0.8070   -0.5070 N   0  3  0  0  0  0  0  0  0  0  0  0
   -2.1480   -0.1620    0.0920 O   0  0  0  0  0  0  0  0  0  0  0  0
   -1.6880    1.9360   -0.1010 O   0  5  0  0  0  0  0  0  0  0  0  0
    1.3140    3.1110   -1.5000 N   0  3  0  0  0  0  0  0  0  0  0  0
    2.4640    3.1880   -1.1810 O   0  0  0  0  0  0  0  0  0  0  0  0
    0.4930    3.9820   -1.5380 O   0  5  0  0  0  0  0  0  0  0  0  0
    2.1930   -0.7710   -0.4490 N   0  3  0  0  0  0  0  0  0  0  0  0
    2.1970   -1.9070   -0.0570 O   0  0  0  0  0  0  0  0  0  0  0  0
    2.4890    0.2170    0.1670 O   0  5  0  0  0  0  0  0  0  0  0  0
  1  2  1  0  0  0  0
  1  3  1  0  0  0  0
  1  4  1  0  0  0  0
  1 16  1  0  0  0  0
  4  5  1  0  0  0  0
  4 23  1  0  0  0  0
  5  6  1  0  0  0  0
  5  7  1  0  0  0  0
  5  8  1  0  0  0  0
  8  9  1  0  0  0  0
  8 20  1  0  0  0  0
  9 10  1  0  0  0  0
  9 11  1  0  0  0  0
  9 12  1  0  0  0  0
 12 13  1  0  0  0  0
 12 17  1  0  0  0  0
 13 14  1  0  0  0  0
 13 15  1  0  0  0  0
 13 16  1  0  0  0  0
 16 26  1  0  0  0  0
 17 18  2  0  0  0  0
 17 19  1  0  0  0  0
 20 21  2  0  0  0  0
 20 22  1  0  0  0  0
 23 24  2  0  0  0  0
 23 25  1  0  0  0  0
 26 27  2  0  0  0  0
 26 28  1  0  0  0  0
M  CHG  1  17   1
M  CHG  1  19  -1
M  CHG  1  20   1
M  CHG  1  22  -1
M  CHG  1  23   1
M  CHG  1  25  -1
M  CHG  1  26   1
M  CHG  1  28  -1
M  END
>  <energy>
-97546.273

>  <Hf>
63.058578

>  <cpu>
3.8699999


$$$$

  MOE2016           3D

 21 21  0  0  0  0  0  0  0  0999 V2000
    1.1630    0.7630    0.1810 N   0  0  0  0  0  0  0  0  0  0  0  0
   -0.1180    1.4320    0.5840 C   0  0  0  0  0  0  0  0  0  0  0  0
   -0.0360    2.5390    0.5170 H   0  0  0  0  0  0  0  0  0  0  0  0
   -0.4020    1.1740    1.6270 H   0  0  0  0  0  0  0  0  0  0  0  0
   -1.2040    0.9290   -0.3000 N   0  0  0  0  0  0  0  0  0  0  0  0
   -1.3320   -0.5520   -0.2630 C   0  0  0  0  0  0  0  0  0  0  0  0
   -2.1410   -0.8980   -0.9420 H   0  0  0  0  0  0  0  0  0  0  0  0
   -1.6180   -0.8290    0.7740 H   0  0  0  0  0  0  0  0  0  0  0  0
   -0.0060   -1.1440   -0.6420 N   0  0  0  0  0  0  0  0  0  0  0  0
    1.1020   -0.7290    0.2740 C   0  0  0  0  0  0  0  0  0  0  0  0
    2.0660   -1.1820   -0.0450 H   0  0  0  0  0  0  0  0  0  0  0  0
    0.8880   -1.0500    1.3190 H   0  0  0  0  0  0  0  0  0  0  0  0
    2.4730    1.4550    0.4390 N   0  3  0  0  0  0  0  0  0  0  0  0
    3.4620    0.7920    0.2750 O   0  0  0  0  0  0  0  0  0  0  0  0
    2.4070    2.6060    0.7800 O   0  5  0  0  0  0  0  0  0  0  0  0
    0.0480   -2.5000   -1.2880 N   0  3  0  0  0  0  0  0  0  0  0  0
   -1.0030   -2.9560   -1.6530 O   0  0  0  0  0  0  0  0  0  0  0  0
    1.1380   -2.9980   -1.3820 O   0  5  0  0  0  0  0  0  0  0  0  0
   -1.3890    1.6240   -1.6650 N   0  3  0  0  0  0  0  0  0  0  0  0
   -0.9500    2.7380   -1.7560 O   0  0  0  0  0  0  0  0  0  0  0  0
   -2.0080    1.0110   -2.4910 O   0  5  0  0  0  0  0  0  0  0  0  0
  1  2  1  0  0  0  0
  1 10  1  0  0  0  0
  1 13  1  0  0  0  0
  2  3  1  0  0  0  0
  2  4  1  0  0  0  0
  2  5  1  0  0  0  0
  5  6  1  0  0  0  0
  5 19  1  0  0  0  0
  6  7  1  0  0  0  0
  6  8  1  0  0  0  0
  6  9  1  0  0  0  0
  9 10  1  0  0  0  0
  9 16  1  0  0  0  0
 10 11  1  0  0  0  0
 10 12  1  0  0  0  0
 13 14  2  0  0  0  0
 13 15  1  0  0  0  0
 16 17  2  0  0  0  0
 16 18  1  0  0  0  0
 19 20  2  0  0  0  0
 19 21  1  0  0  0  0
M  CHG  1  13   1
M  CHG  1  15  -1
M  CHG  1  16   1
M  CHG  1  18  -1
M  CHG  1  19   1
M  CHG  1  21  -1
M  END
>  <energy>
-73164.688

>  <Hf>
42.3134

>  <cpu>
0.28


$$$$

  MOE2016           3D

 28 28  0  0  0  0  0  0  0  0999 V2000
    1.8780    0.7780   -2.5140 C   0  0  0  0  0  0  0  0  0  0  0  0
    2.9110    1.1420   -2.3290 H   0  0  0  0  0  0  0  0  0  0  0  0
    1.7650    0.6310   -3.6110 H   0  0  0  0  0  0  0  0  0  0  0  0
    0.8350    1.6980   -1.9790 N   0  0  0  0  0  0  0  0  0  0  0  0
   -0.5060    1.6040   -2.6250 C   0  0  0  0  0  0  0  0  0  0  0  0
   -0.4160    1.3050   -3.6920 H   0  0  0  0  0  0  0  0  0  0  0  0
   -1.0470    2.5750   -2.5950 H   0  0  0  0  0  0  0  0  0  0  0  0
   -1.3740    0.5970   -1.9500 N   0  0  0  0  0  0  0  0  0  0  0  0
   -1.4160   -0.7700   -2.5350 C   0  0  0  0  0  0  0  0  0  0  0  0
   -1.2690   -0.6620   -3.6320 H   0  0  0  0  0  0  0  0  0  0  0  0
   -2.4420   -1.1650   -2.3740 H   0  0  0  0  0  0  0  0  0  0  0  0
   -0.3830   -1.6760   -1.9500 N   0  0  0  0  0  0  0  0  0  0  0  0
    0.9690   -1.6000   -2.5740 C   0  0  0  0  0  0  0  0  0  0  0  0
    0.8980   -1.3220   -3.6480 H   0  0  0  0  0  0  0  0  0  0  0  0
    1.5070   -2.5710   -2.5150 H   0  0  0  0  0  0  0  0  0  0  0  0
    1.8210   -0.5790   -1.9040 N   0  0  0  0  0  0  0  0  0  0  0  0
   -0.8710   -3.0830   -1.4520 N   0  3  0  0  0  0  0  0  0  0  0  0
   -0.0250   -3.9230   -1.3500 O   0  0  0  0  0  0  0  0  0  0  0  0
   -2.0470   -3.1870   -1.2560 O   0  5  0  0  0  0  0  0  0  0  0  0
   -1.7640    0.8070   -0.5070 N   0  3  0  0  0  0  0  0  0  0  0  0
   -2.1480   -0.1620    0.0920 O   0  0  0  0  0  0  0  0  0  0  0  0
   -1.6880    1.9360   -0.1010 O   0  5  0  0  0  0  0  0  0  0  0  0
    1.3140    3.1110   -1.5000 N   0  3  0  0  0  0  0  0  0  0  0  0
    2.4640    3.1880   -1.1810 O   0  0  0  0  0  0  0  0  0  0  0  0
    0.4930    3.9820   -1.5380 O   0  5  0  0  0  0  0  0  0  0  0  0
    2.1930   -0.7710   -0.4490 N   0  3  0  0  0  0  0  0  0  0  0  0
    2.1970   -1.9070   -0.0570 O   0  0  0  0  0  0  0  0  0  0  0  0
    2.4890    0.2170    0.1670 O   0  5  0  0  0  0  0  0  0  0  0  0
  1  2  1  0  0  0  0
  1  3  1  0  0  0  0
  1  4  1  0  0  0  0
  1 16  1  0  0  0  0
  4  5  1  0  0  0  0
  4 23  1  0  0  0  0
  5  6  1  0  0  0  0
  5  7  1  0  0  0  0
  5  8  1  0  0  0  0
  8  9  1  0  0  0  0
  8 20  1  0  0  0  0
  9 10  1  0  0  0  0
  9 11  1  0  0  0  0
  9 12  1  0  0  0  0
 12 13  1  0  0  0  0
 12 17  1  0  0  0  0
 13 14  1  0  0  0  0
 13 15  1  0  0  0  0
 13 16  1  0  0  0  0
 16 26  1  0  0  0  0
 17 18  2  0  0  0  0
 17 19  1  0  0  0  0
 20 21  2  0  0  0  0
 20 22  1  0  0  0  0
 23 24  2  0  0  0  0
 23 25  1  0  0  0  0
 26 27  2  0  0  0  0
 26 28  1  0  0  0  0
M  CHG  1  17   1
M  CHG  1  19  -1
M  CHG  1  20   1
M  CHG  1  22  -1
M  CHG  1  23   1
M  CHG  1  25  -1
M  CHG  1  26   1
M  CHG  1  28  -1
M  END
>  <energy>
-97546.273

>  <Hf>
63.058578

>  <cpu>
3.8699999


$$$$
